Version 4
SHEET 1 1824 680
WIRE -736 -1120 -816 -1120
WIRE -736 -1104 -736 -1120
WIRE -2032 -1088 -2096 -1088
WIRE -1904 -1088 -1968 -1088
WIRE -1792 -1088 -1824 -1088
WIRE -1776 -1088 -1792 -1088
WIRE -2096 -1072 -2096 -1088
WIRE -816 -1056 -816 -1120
WIRE -816 -1056 -880 -1056
WIRE -880 -1024 -880 -1056
WIRE -880 -1024 -1008 -1024
WIRE -736 -1008 -736 -1024
WIRE -736 -1008 -800 -1008
WIRE -1792 -992 -1792 -1008
WIRE -2096 -976 -2096 -992
WIRE -736 -976 -736 -1008
WIRE -1280 -960 -1280 -1008
WIRE -1008 -960 -1008 -1024
WIRE -1008 -960 -1280 -960
WIRE -1232 -944 -1408 -944
WIRE -800 -944 -800 -1008
WIRE -800 -944 -832 -944
WIRE -1440 -928 -1440 -1008
WIRE -1408 -928 -1408 -944
WIRE -1408 -928 -1440 -928
WIRE -1360 -928 -1360 -1008
WIRE -880 -928 -1360 -928
WIRE -1360 -912 -1360 -928
WIRE -1232 -912 -1232 -944
WIRE -928 -912 -1232 -912
WIRE -1152 -880 -1280 -880
WIRE -736 -880 -736 -896
WIRE -1440 -864 -1440 -928
WIRE -912 -864 -1008 -864
WIRE -816 -864 -832 -864
WIRE -1232 -848 -1232 -912
WIRE -1280 -832 -1280 -880
WIRE -1264 -832 -1280 -832
WIRE -928 -832 -928 -912
WIRE -2000 -816 -2096 -816
WIRE -1152 -816 -1152 -880
WIRE -1152 -816 -1200 -816
WIRE -1120 -816 -1152 -816
WIRE -1008 -816 -1008 -864
WIRE -1008 -816 -1040 -816
WIRE -992 -816 -1008 -816
WIRE -960 -816 -976 -816
WIRE -1360 -800 -1360 -832
WIRE -1264 -800 -1360 -800
WIRE -816 -800 -816 -864
WIRE -816 -800 -896 -800
WIRE -784 -800 -816 -800
WIRE -2096 -784 -2096 -816
WIRE -992 -784 -992 -816
WIRE -960 -784 -992 -784
WIRE -1440 -768 -1440 -784
WIRE -976 -768 -976 -816
WIRE -976 -768 -1440 -768
WIRE -1440 -752 -1440 -768
WIRE -1360 -752 -1360 -800
WIRE -1008 -752 -1008 -816
WIRE -928 -720 -928 -768
WIRE -832 -720 -928 -720
WIRE -736 -720 -736 -784
WIRE -736 -720 -832 -720
WIRE -832 -656 -832 -720
WIRE -1440 -640 -1440 -672
WIRE -1360 -640 -1360 -672
WIRE -1360 -640 -1440 -640
WIRE -1232 -640 -1232 -784
WIRE -1232 -640 -1360 -640
WIRE -1008 -640 -1008 -672
WIRE -1008 -640 -1232 -640
WIRE -928 -640 -928 -720
WIRE -928 -640 -1008 -640
WIRE -2032 -624 -2096 -624
WIRE -1936 -624 -1952 -624
WIRE -2096 -608 -2096 -624
FLAG -2096 -976 0
FLAG -1776 -1088 A2Output
IOPIN -1776 -1088 In
FLAG -1920 -816 BatteryTerminal
IOPIN -1920 -816 Out
FLAG -2096 -704 0
FLAG -1936 -624 5V
IOPIN -1936 -624 Out
FLAG -2096 -1088 VSupply
FLAG -1792 -992 0
FLAG -2096 -528 0
FLAG -1360 -1008 BatteryTerminal
IOPIN -1360 -1008 Out
FLAG -1280 -1008 A2Output
IOPIN -1280 -1008 In
FLAG -1440 -1008 5V
IOPIN -1440 -1008 In
FLAG -832 -656 0
SYMBOL voltage -2096 -1088 R0
WINDOW 123 0 0 Left 0
WINDOW 39 0 0 Left 0
WINDOW 3 26 127 Left 2
WINDOW 0 -13 54 Left 2
SYMATTR Value PWL file=PowerSupplyPWL.csv
SYMATTR InstName V1
SYMBOL res -1904 -832 R90
WINDOW 0 -7 47 VBottom 2
WINDOW 3 29 54 VTop 2
SYMATTR InstName RSenseBattery
SYMATTR Value 1µ
SYMBOL schottky -2032 -1072 R270
WINDOW 0 32 32 VTop 2
WINDOW 3 0 32 VBottom 2
SYMATTR InstName Diode_A2
SYMATTR Value 1N5819
SYMATTR Description Diode
SYMATTR Type diode
SYMBOL voltage -2096 -800 R0
WINDOW 123 0 0 Left 0
WINDOW 39 0 0 Left 0
WINDOW 3 44 52 Left 2
WINDOW 0 -13 54 Left 2
SYMATTR Value PWL file=BatteryPWL.csv
SYMATTR InstName V3
SYMBOL res -1920 -1072 R270
WINDOW 0 32 56 VTop 2
WINDOW 3 0 56 VBottom 2
SYMATTR InstName RSenseSupply
SYMATTR Value 1
SYMBOL res -1808 -1104 R0
SYMATTR InstName QLoad
SYMATTR Value 50
SYMBOL voltage -2096 -624 R0
WINDOW 123 0 0 Left 0
WINDOW 39 0 0 Left 0
SYMATTR InstName V2
SYMATTR Value 5
SYMBOL res -2048 -640 M90
WINDOW 0 -7 47 VBottom 2
WINDOW 3 29 54 VTop 2
SYMATTR InstName RSense5V
SYMATTR Value 1µ
SYMBOL pmos -832 -1024 M0
SYMATTR InstName M1
SYMATTR Value irf9z24n
SYMATTR Prefix X
SYMATTR SpiceModel irf9z24n
SYMBOL nmos -784 -880 R0
SYMATTR InstName M2
SYMATTR Value 2N7002
SYMBOL LTC6079 -1232 -816 R0
WINDOW 0 17 -37 Left 2
SYMATTR InstName U1
SYMBOL LTC6079 -928 -800 R0
WINDOW 0 -42 -47 Left 2
SYMATTR InstName U2
SYMBOL res -1024 -832 R90
WINDOW 0 0 56 VBottom 2
WINDOW 3 32 56 VTop 2
SYMATTR InstName R6
SYMATTR Value 22
SYMBOL res -1376 -656 M180
WINDOW 0 36 76 Left 2
WINDOW 3 36 40 Left 2
SYMATTR InstName R4
SYMATTR Value 210k
SYMBOL res -1376 -928 R0
SYMATTR InstName R3
SYMATTR Value 410k
SYMBOL res -992 -768 M0
SYMATTR InstName R7
SYMATTR Value 2k
SYMBOL res -928 -848 R270
WINDOW 0 32 56 VTop 2
WINDOW 3 0 56 VBottom 2
SYMATTR InstName R8
SYMATTR Value 560k
SYMBOL res -1424 -880 M0
SYMATTR InstName R1
SYMATTR Value 295k
SYMBOL res -1424 -768 M0
SYMATTR InstName R2
SYMATTR Value 205k
SYMBOL res -752 -992 R0
SYMATTR InstName R10
SYMATTR Value 2.7k
SYMBOL res -752 -1120 R0
SYMATTR InstName R9
SYMATTR Value 4.7k
TEXT -2072 -904 Left 2 !.tran 0 {transtop} 0
TEXT -2072 -936 Left 2 !.include A1cfg.txt
TEXT -2288 -1384 Left 2 ;Don't change these -- used for auto-assessments.\nYou may modify the input files (.txt and .csv) \n               while developing.\nFor submission: \n  * Only one label name per net name\n  * Use only VSupply for power\n  * Use ChargeOn to control charging\n  * Use BatteryTerminal as your battery's \n          positive terminal
TEXT -2272 -936 Left 2 ;Config file:
TEXT -2272 -904 Left 2 ;Analysis setup:
TEXT -2264 -1048 Left 2 ;Power\nsupply
TEXT -1552 -1400 Left 2 ;=============================\nREPLACE WITH YOUR DETAILS\nW. Viljoen.,  22877169\n=============================
TEXT -960 -1320 Left 2 !.inc irf9z24n.lib
TEXT -960 -1400 Left 2 ;=============================\nIncludes (don't fiddle with this!!)\n=============================
TEXT -1152 -1208 Left 2 ;=======================================\nYour circuit goes here, these are just placeholders.\n=======================================
TEXT -1528 -576 Left 2 ;THIS CIRCUIT MIGHT TAKE A WHILE TO SIMULATE TO COMPLETION (THIS IS WHEN YOU CAN SEE YOUR WAVEFORMS FOR THE FULL 2 SECOND DURATION).\nPLEASE WAIT FOR THE SOLVER TO FINISH BEFORE SUBMITTING YOUR CIRCUIT.\n \nYou may use less or more op-amps than are presented here. Use LTC6069 op-amps in your simulations; the TLC2272 SPICE models can sometimes take quite a while to simulate.\nYou may use the 5V net to power your circuit. In practice, you will be given a voltage regulator for this purpose.
LINE Normal -1584 -1424 -1584 -480 2
LINE Normal -2368 -1424 -1584 -1424 2
LINE Normal -1584 -480 -2368 -480 2
LINE Normal -1584 -496 -1584 -496 2
LINE Normal -2368 -1424 -2368 -480 2
